54
Lattice="0.0 8.145 8.145 8.145 0.0 8.145 8.145 8.145 0.0" Properties=species:S:1:pos:R:3 pbc="T T T"
Si       5.43000000       5.43000000       5.43000000 
Si       6.78750000       6.78750000       6.78750000 
Si       8.14500000       8.14500000       5.43000000 
Si       9.50250000       9.50250000       6.78750000 
Si       2.71500000       2.71500000       5.43000000 
Si       4.07250000       4.07250000       6.78750000 
Si       8.14500000       5.43000000       8.14500000 
Si       9.50250000       6.78750000       9.50250000 
Si      10.86000000       8.14500000       8.14500000 
Si      12.21750000       9.50250000       9.50250000 
Si       5.43000000       2.71500000       8.14500000 
Si       6.78750000       4.07250000       9.50250000 
Si       2.71500000       5.43000000       2.71500000 
Si       4.07250000       6.78750000       4.07250000 
Si       5.43000000       8.14500000       2.71500000 
Si       6.78750000       9.50250000       4.07250000 
Si       0.00000000       2.71500000       2.71500000 
Si       1.35750000       4.07250000       4.07250000 
Si       5.43000000       8.14500000       8.14500000 
Si       6.78750000       9.50250000       9.50250000 
Si       8.14500000      10.86000000       8.14500000 
Si       9.50250000      12.21750000       9.50250000 
Si       2.71500000       5.43000000       8.14500000 
Si       4.07250000       6.78750000       9.50250000 
Si       8.14500000       8.14500000      10.86000000 
Si       9.50250000       9.50250000      12.21750000 
Si      10.86000000      10.86000000      10.86000000 
Si      12.21750000      12.21750000      12.21750000 
Si       5.43000000       5.43000000      10.86000000 
Si       6.78750000       6.78750000      12.21750000 
Si       2.71500000       8.14500000       5.43000000 
Si       4.07250000       9.50250000       6.78750000 
Si       5.43000000      10.86000000       5.43000000 
Si       6.78750000      12.21750000       6.78750000 
Si       0.00000000       5.43000000       5.43000000 
Si       1.35750000       6.78750000       6.78750000 
Si       5.43000000       2.71500000       2.71500000 
Si       6.78750000       4.07250000       4.07250000 
Si       8.14500000       5.43000000       2.71500000 
Si       9.50250000       6.78750000       4.07250000 
Si       2.71500000       0.00000000       2.71500000 
Si       4.07250000       1.35750000       4.07250000 
Si       8.14500000       2.71500000       5.43000000 
Si       9.50250000       4.07250000       6.78750000 
Si      10.86000000       5.43000000       5.43000000 
Si      12.21750000       6.78750000       6.78750000 
Si       5.43000000       0.00000000       5.43000000 
Si       6.78750000       1.35750000       6.78750000 
Si       2.71500000       2.71500000       0.00000000 
Si       4.07250000       4.07250000       1.35750000 
Si       5.43000000       5.43000000       0.00000000 
Si       6.78750000       6.78750000       1.35750000 
Si       0.00000000       0.00000000       0.00000000 
Si       1.35750000       1.35750000       1.35750000 
