54
Lattice="0.0 5.349 5.349 5.349 0.0 5.349 5.349 5.349 0.0" Properties=species:S:1:pos:R:3:forces:R:3 energy=-398.00769680017703 stress="0.0008344733652617098 3.479311978471493e-05 -3.1842884639473684e-16 3.479311978471493e-05 0.0008344733652619014 7.781521218586818e-16 -3.1842884639473684e-16 7.781521218586818e-16 0.0008343188416671843" free_energy=-398.00769680017703 pbc="T T T"
C        0.00000000       0.00000000       0.00000000       0.00297841       0.00297841       0.01352573
C        0.89150000       0.89150000       0.89150000      -0.00000000       0.00000000      -0.06078354
C        1.78300000       1.78300000       0.00000000      -0.00297841      -0.00297841       0.01352573
C        2.67450000       2.67450000       0.89150000       0.00158189       0.00158189      -0.00094592
C        3.56600000       3.56600000       0.00000000      -0.00000000      -0.00000000       0.00000000
C        4.45750000       4.45750000       0.89150000      -0.00158189      -0.00158189      -0.00094592
C        1.78300000       0.00000000       1.78300000       0.00299456      -0.00299456       0.01360341
C        2.67450000       0.89150000       2.67450000       0.00140279      -0.00158377       0.00129045
C        3.56600000       1.78300000       1.78300000       0.00000000       0.00000000      -0.00000000
C        4.45750000       2.67450000       2.67450000      -0.00000000       0.00000000       0.00000000
C        5.34900000       3.56600000       1.78300000       0.00000000      -0.00000000      -0.00000000
C        6.24050000       4.45750000       2.67450000       0.00158377      -0.00140279       0.00129045
C        3.56600000       0.00000000       3.56600000      -0.00000000       0.00000000       0.00000000
C        4.45750000       0.89150000       4.45750000       0.00139973       0.00158285       0.00129058
C        5.34900000       1.78300000       3.56600000      -0.00000000       0.00000000       0.00000000
C        6.24050000       2.67450000       4.45750000      -0.00158285      -0.00139973       0.00129058
C        7.13200000       3.56600000       3.56600000       0.00000000       0.00000000      -0.00000000
C        8.02350000       4.45750000       4.45750000      -0.00000000       0.00000000       0.00000000
C        0.00000000       1.78300000       1.78300000      -0.00299456       0.00299456       0.01360341
C        0.89150000       2.67450000       2.67450000      -0.00158377       0.00140279       0.00129045
C        1.78300000       3.56600000       1.78300000       0.00000000       0.00000000      -0.00000000
C        2.67450000       4.45750000       2.67450000      -0.00000000      -0.00000000       0.00000000
C        3.56600000       5.34900000       1.78300000       0.00000000       0.00000000      -0.00000000
C        4.45750000       6.24050000       2.67450000      -0.00140279       0.00158377       0.00129045
C        1.78300000       1.78300000       3.56600000       0.00000000      -0.00000000       0.00000000
C        2.67450000       2.67450000       4.45750000      -0.00000000      -0.00000000       0.00000000
C        3.56600000       3.56600000       3.56600000       0.00000000       0.00000000      -0.00000000
C        4.45750000       4.45750000       4.45750000       0.00000000      -0.00000000       0.00000000
C        5.34900000       5.34900000       3.56600000       0.00000000      -0.00000000      -0.00000000
C        6.24050000       6.24050000       4.45750000       0.00000000      -0.00000000      -0.00000000
C        3.56600000       1.78300000       5.34900000      -0.00000000      -0.00000000      -0.00000000
C        4.45750000       2.67450000       6.24050000       0.00158474      -0.00158474      -0.00095351
C        5.34900000       3.56600000       5.34900000      -0.00000000       0.00000000      -0.00000000
C        6.24050000       4.45750000       6.24050000      -0.00000000      -0.00000000      -0.00000000
C        7.13200000       5.34900000       5.34900000       0.00000000       0.00000000      -0.00000000
C        8.02350000       6.24050000       6.24050000      -0.00000000      -0.00000000      -0.00000000
C        0.00000000       3.56600000       3.56600000       0.00000000      -0.00000000       0.00000000
C        0.89150000       4.45750000       4.45750000       0.00158285       0.00139973       0.00129058
C        1.78300000       5.34900000       3.56600000       0.00000000      -0.00000000       0.00000000
C        2.67450000       6.24050000       4.45750000      -0.00139973      -0.00158285       0.00129058
C        3.56600000       7.13200000       3.56600000       0.00000000       0.00000000      -0.00000000
C        4.45750000       8.02350000       4.45750000       0.00000000      -0.00000000       0.00000000
C        1.78300000       3.56600000       5.34900000      -0.00000000      -0.00000000      -0.00000000
C        2.67450000       4.45750000       6.24050000      -0.00158474       0.00158474      -0.00095351
C        3.56600000       5.34900000       5.34900000      -0.00000000      -0.00000000       0.00000000
C        4.45750000       6.24050000       6.24050000      -0.00000000       0.00000000      -0.00000000
C        5.34900000       7.13200000       5.34900000       0.00000000       0.00000000      -0.00000000
C        6.24050000       8.02350000       6.24050000      -0.00000000      -0.00000000       0.00000000
C        3.56600000       3.56600000       7.13200000       0.00000000       0.00000000      -0.00000000
C        4.45750000       4.45750000       8.02350000      -0.00000000       0.00000000       0.00000000
C        5.34900000       5.34900000       7.13200000       0.00000000      -0.00000000      -0.00000000
C        6.24050000       6.24050000       8.02350000       0.00000000      -0.00000000      -0.00000000
C        7.13200000       7.13200000       7.13200000       0.00000000       0.00000000       0.00000000
C        8.02350000       8.02350000       8.02350000      -0.00000000      -0.00000000       0.00000000
